21
 energy: -39.530635154349 gnorm: 0.000095840118 xtb: 6.7.0 (08769fc)
B            0.00017702547114       -1.16278300758150       -0.00066745582212
N            1.24627061273776       -0.24052716815861        0.00156683326844
C            2.51751016718841       -0.61857106195354        0.00312179552443
C            3.35655455317452        0.50528058989949        0.00287962869207
C            2.53997009715796        1.61256448083341        0.00070384955847
C            1.20516205259512        1.13862599607688        0.00014173749418
C           -0.00032304841497        1.82113886290758       -0.00086056016971
C           -1.20556889601404        1.13823115177159       -0.00003278571764
N           -1.24621954616455       -0.24093939120406        0.00141150110296
C           -2.51733119656370       -0.61939495552925        0.00279339346127
C           -3.35674880643504        0.50418227224421        0.00240880679564
C           -2.54053645941108        1.61173106081800        0.00032937542529
F            0.00024382828561       -1.95252177517873        1.12653597519940
F            0.00037878254792       -1.94636075684075       -1.13235955411530
H            2.78211959574293       -1.65870958034460        0.00449248995480
H            4.42824695964868        0.48432192858323        0.00408458591224
H            2.83029821730682        2.64483513379815       -0.00008583811622
H           -0.00050328004935        2.90076584426171       -0.00216023668259
H           -2.78159953233566       -1.65962084112531        0.00415081215104
H           -4.42843611467985        0.48287175548703        0.00346040370419
H           -2.83120516788862        2.64390648123507       -0.00052439102083
